22

H -3.5081586837768555 1.5184783935546875 0.7520160675048828
H -3.4610586166381836 -0.05352020263671875 -0.10418319702148438
H -3.423858642578125 -0.008821487426757812 1.6730155944824219
H -1.433359146118164 -1.4224205017089844 0.43071651458740234
H 0.8661413192749023 0.07427978515625 1.4318161010742188
H 2.044841766357422 -2.133420944213867 1.2518157958984375
H 0.6639413833618164 -2.825221061706543 0.39711666107177734
H 0.4908409118652344 -2.3113203048706055 2.112516403198242
H 0.7467412948608398 1.622579574584961 -0.27878379821777344
H 2.8227405548095703 1.060079574584961 -2.325984001159668
H 1.2033414840698242 1.3294792175292969 -3.003983497619629
H 1.9884414672851562 2.617380142211914 -2.0364837646484375
C -3.0836591720581055 0.5092792510986328 0.7631168365478516
C -1.571059226989746 0.6091785430908203 0.7487163543701172
C 0.5529413223266602 -0.679020881652832 0.690216064453125
C 0.9540414810180664 -2.0728206634521484 1.1447162628173828
C 1.2219409942626953 -0.31992053985595703 -0.6627836227416992
C 1.8495407104492188 1.5334796905517578 -2.1345834732055664
N -0.9050588607788086 -0.5701208114624023 0.5993165969848633
N 1.2867412567138672 1.0138797760009766 -0.9018831253051758
O -0.970158576965332 1.6888790130615234 0.8879165649414062
O 1.6641407012939453 -1.1803207397460938 -1.4343833923339844
22

H -3.773413896560669 1.21517813205719 0.5321356654167175
H -3.156036376953125 0.9027543663978577 1.2247086763381958
H -3.5550222396850586 -0.20617052912712097 1.4747657775878906
H -1.216233730316162 -1.4600069522857666 0.6052818298339844
H 0.38327836990356445 -1.2489275932312012 0.10952450335025787
H 2.06614089012146 -2.068934917449951 1.209012508392334
H 0.8064757585525513 -2.8691885471343994 0.4196093678474426
H 0.522325873374939 -2.1847219467163086 2.160735607147217
H 0.846461832523346 1.778125286102295 -0.28685489296913147
H 2.644630193710327 1.0634785890579224 -2.4990243911743164
H 2.082217216491699 2.2758586406707764 -1.683273196220398
H 1.7255635261535645 2.5488455295562744 -2.5306496620178223
C -3.189647674560547 0.2610844671726227 0.576248049736023
C -1.7150977849960327 0.46485817432403564 0.7030021548271179
C 0.60111004114151 -0.5873275399208069 0.7536136507987976
C 1.0343436002731323 -2.0366098880767822 1.1747236251831055
C 1.1745928525924683 -0.22561287879943848 -0.6074882745742798
C 1.7406996488571167 1.4764915704727173 -2.3384788036346436
N -0.8357961177825928 -0.6213558316230774 0.6865978837013245
N 1.2037007808685303 1.0490256547927856 -0.9981406331062317
O -1.2461307048797607 1.578377366065979 0.7587166428565979
O 1.7583842277526855 -1.1203491687774658 -1.3741462230682373
22

H -3.710536003112793 1.2324103116989136 0.4061741232872009
H -3.1719281673431396 0.8996970057487488 1.228849172592163
H -3.5515708923339844 -0.27976492047309875 1.3657290935516357
H -1.256946086883545 -1.575862169265747 0.4965434670448303
H 0.30211031436920166 -1.3658547401428223 0.08594439923763275
H 2.0326638221740723 -2.220768451690674 0.9423385858535767
H 0.8072071075439453 -2.7840847969055176 0.1622210443019867
H 0.5660232305526733 -2.309844970703125 1.99651038646698
H 0.6384064555168152 1.7370598316192627 -0.38085126876831055
H 2.5044562816619873 1.3203489780426025 -2.413989305496216
H 2.2538981437683105 2.208106756210327 -1.371781587600708
H 1.7798871994018555 2.676248550415039 -2.1334259510040283
C -3.1358611583709717 0.28773048520088196 0.5843347311019897
C -1.699075698852539 0.4623955488204956 0.6864387392997742
C 0.5905840396881104 -0.6597849726676941 0.6909764409065247
C 1.0323697328567505 -2.0915491580963135 0.9820724725723267
C 1.18356454372406 -0.24372506141662598 -0.5657312870025635
C 1.7760288715362549 1.6320667266845703 -2.0397512912750244
N -0.8483631610870361 -0.6860156059265137 0.6146265864372253
N 1.1671850681304932 1.0814908742904663 -0.8907561898231506
O -1.2259185314178467 1.6103870868682861 0.8060605525970459
O 1.9265539646148682 -1.0632877349853516 -1.175389289855957
22

H -3.68131947517395 1.224381446838379 0.21541911363601685
H -3.1887052059173584 0.9343321919441223 1.1714096069335938
H -3.5628480911254883 -0.36971068382263184 1.1874182224273682
H -1.2867451906204224 -1.6266456842422485 0.40576571226119995
H 0.1823665052652359 -1.514318823814392 0.1184125691652298
H 1.9893819093704224 -2.3839287757873535 0.6025435328483582
H 0.8302332162857056 -2.7086572647094727 -0.08207018673419952
H 0.5749339461326599 -2.4441933631896973 1.7890853881835938
H 0.4054175019264221 1.6092383861541748 -0.5794311761856079
H 2.3294270038604736 1.6133068799972534 -2.339374542236328
H 2.4996376037597656 2.0455644130706787 -1.022450566291809
H 1.8712538480758667 2.832411050796509 -1.5985764265060425
C -3.079789876937866 0.32815590500831604 0.5659589171409607
C -1.6843873262405396 0.4738731384277344 0.6625622510910034
C 0.5803161263465881 -0.7250678539276123 0.6377439498901367
C 1.0255733728408813 -2.1465420722961426 0.7660927772521973
C 1.2005199193954468 -0.2556062936782837 -0.4918673634529114
C 1.828864336013794 1.8069735765457153 -1.6727404594421387
N -0.862873911857605 -0.7171676158905029 0.5493485331535339
N 1.13548743724823 1.0913406610488892 -0.7911800742149353
O -1.2111175060272217 1.635554313659668 0.8777016401290894
O 2.1346547603607178 -0.9184015989303589 -0.8647406101226807
22

H -3.7077794075012207 1.141975998878479 -0.008999377489089966
H -3.2156522274017334 0.9708248376846313 1.1455931663513184
H -3.5784473419189453 -0.4471946656703949 0.9817764759063721
H -1.2984708547592163 -1.6270520687103271 0.36108189821243286
H 0.051730379462242126 -1.598775863647461 0.17728786170482635
H 1.8839341402053833 -2.5623719692230225 0.17325057089328766
H 0.8136614561080933 -2.601724147796631 -0.35764288902282715
H 0.5293869376182556 -2.6022584438323975 1.5182387828826904
H 0.060417138040065765 1.4550251960754395 -0.9829768538475037
H 2.1318836212158203 1.931761622428894 -2.2570149898529053
H 2.854926586151123 1.7963131666183472 -0.7255109548568726
H 2.016549587249756 3.0211470127105713 -0.928200364112854
C -3.019982099533081 0.3779323995113373 0.5540497303009033
C -1.6556448936462402 0.4660800099372864 0.6401325464248657
C 0.5697640776634216 -0.7849482893943787 0.5712823867797852
C 0.981556236743927 -2.1961865425109863 0.5103538632392883
C 1.2430089712142944 -0.26940181851387024 -0.3644869923591614
C 1.9157590866088867 1.9931021928787231 -1.2646081447601318
N -0.8694384098052979 -0.7328661680221558 0.4969433546066284
N 1.0815532207489014 1.1011631488800049 -0.7480695843696594
O -1.1550205945968628 1.5815447568893433 0.9713574051856995
O 2.462279796600342 -0.7264636754989624 -0.351858526468277
22

H -3.663891315460205 1.1909468173980713 -0.21195869147777557
H -3.244107246398926 1.0570266246795654 1.0068597793579102
H -3.588844060897827 -0.4582681953907013 0.8779423236846924
H -1.2714190483093262 -1.591470718383789 0.20958924293518066
H -0.07359345257282257 -1.67356276512146 0.18614085018634796
H 1.6828303337097168 -2.7645528316497803 -0.1864275336265564
H 0.6993210911750793 -2.511465549468994 -0.7955302596092224
H 0.4024725556373596 -2.8953773975372314 1.1599868535995483
H 0.12714943289756775 1.5416617393493652 -1.0043268203735352
H 2.2291054725646973 2.209744691848755 -1.8462351560592651
H 2.9995498657226562 1.7895275354385376 -0.49376988410949707
H 2.0837204456329346 2.980616569519043 -0.3905912935733795
C -2.977916717529297 0.42056840658187866 0.42815908789634705
C -1.630043864250183 0.48402321338653564 0.6348100900650024
C 0.5051525235176086 -0.8796268105506897 0.5435603857040405
C 0.864127516746521 -2.299736499786377 0.19168461859226227
C 1.2451238632202148 -0.24415117502212524 -0.22220207750797272
C 2.036745309829712 2.032956123352051 -0.9377058148384094
N -0.8583575487136841 -0.7338683605194092 0.4427410364151001
N 1.125402569770813 1.1483577489852905 -0.6093797087669373
O -1.081446886062622 1.5823938846588135 1.1002663373947144
O 2.46864652633667 -0.6823269724845886 0.0004067514091730118
22

H -3.6284432411193848 1.1820236444473267 -0.31579071283340454
H -3.330930709838867 1.0389900207519531 0.9071475267410278
H -3.5223731994628906 -0.4992678761482239 0.8398319482803345
H -1.2910137176513672 -1.4670660495758057 0.0775488018989563
H -0.1974143236875534 -1.7956339120864868 0.16047890484333038
H 1.418074607849121 -2.8109219074249268 -0.682176947593689
H 0.6020112633705139 -2.308781623840332 -1.298250675201416
H 0.21982815861701965 -3.1033923625946045 0.6867508888244629
H 0.2157052755355835 1.6554920673370361 -0.9527929425239563
H 2.3607380390167236 2.510939836502075 -1.3803534507751465
H 3.1862032413482666 1.7532339096069336 -0.17441949248313904
H 2.1814959049224854 2.853856086730957 0.17540699243545532
C -2.9373903274536133 0.4308546781539917 0.3514697849750519
C -1.6148093938827515 0.46402400732040405 0.6627997756004333
C 0.4315297305583954 -0.9790961146354675 0.4824003577232361
C 0.7192583680152893 -2.2978920936584473 -0.21231074631214142
C 1.2692281007766724 -0.21333739161491394 -0.14885930716991425
C 2.193070411682129 2.0455150604248047 -0.5611280798912048
N -0.8765325546264648 -0.7165355682373047 0.394878625869751
N 1.1901904344558716 1.1971957683563232 -0.44832342863082886
O -1.0304182767868042 1.4755364656448364 1.2737557888031006
O 2.5100162029266357 -0.671600341796875 0.19560544192790985
22

H -3.6406946182250977 1.1189507246017456 -0.4252331256866455
H -3.4808647632598877 0.8880906701087952 0.784349799156189
H -3.4882583618164062 -0.6299874782562256 0.7683666944503784
H -1.2889708280563354 -1.5067484378814697 -0.0778404176235199
H -0.19317540526390076 -1.8724836111068726 0.07390381395816803
H 1.4850529432296753 -2.7260100841522217 -1.058219075202942
H 0.7742149233818054 -2.004361629486084 -1.5786250829696655
H 0.21347743272781372 -3.106595754623413 0.2813446819782257
H 0.29689422249794006 1.7130603790283203 -0.8523811101913452
H 2.2839195728302 2.7069947719573975 -0.8860438466072083
H 3.2018041610717773 1.79215407371521 0.18657901883125305
H 2.0682897567749023 2.759267568588257 0.6022732853889465
C -2.9479823112487793 0.35591021180152893 0.2487179934978485
C -1.634425401687622 0.4153033494949341 0.6040006279945374
C 0.4186627268791199 -1.015272855758667 0.4019504189491272
C 0.7825366258621216 -2.1929447650909424 -0.49738743901252747
C 1.2941147089004517 -0.20495402812957764 -0.058341093361377716
C 2.169851303100586 2.076742172241211 -0.1896708458662033
N -0.8819737434387207 -0.7553539276123047 0.29736727476119995
N 1.2014225721359253 1.2124412059783936 -0.27191489934921265
O -1.1007156372070312 1.4156575202941895 1.247653603553772
O 2.5174131393432617 -0.6973138451576233 0.35617250204086304
22

H -3.633888006210327 1.0469468832015991 -0.4987908601760864
H -3.618028402328491 0.6954421997070312 0.6379543542861938
H -3.451672077178955 -0.7524224519729614 0.6878499388694763
H -1.2405763864517212 -1.5937211513519287 -0.22353771328926086
H -0.11949977278709412 -1.911720871925354 0.017118126153945923
H 1.618924617767334 -2.545865297317505 -1.3613516092300415
H 0.9709932208061218 -1.7016360759735107 -1.8203635215759277
H 0.2904207110404968 -3.048948287963867 -0.1403670758008957
H 0.3321298658847809 1.7649016380310059 -0.6994360089302063
H 2.1566219329833984 2.8598999977111816 -0.39286044239997864
H 3.1563169956207275 1.8212615251541138 0.5110940933227539
H 1.879020094871521 2.6557722091674805 1.0204991102218628
C -2.9606478214263916 0.2567771375179291 0.1482289731502533
C -1.6622779369354248 0.34560349583625793 0.5312404036521912
C 0.4373406767845154 -1.0488532781600952 0.3049006164073944
C 0.8888543844223022 -2.0576226711273193 -0.7610024213790894
C 1.3095195293426514 -0.18881681561470032 0.012383608147501945
C 2.08528995513916 2.0914649963378906 0.17192310094833374
N -0.8621034622192383 -0.8154621720314026 0.19598354399204254
N 1.1754369735717773 1.230334997177124 -0.09178497642278671
O -1.2016552686691284 1.3539024591445923 1.1987069845199585
O 2.491863965988159 -0.7025792598724365 0.4459678530693054
22

H -3.63354754447937 1.0029799938201904 -0.5790694952011108
H -3.7430715560913086 0.5374726057052612 0.4601479768753052
H -3.4110054969787598 -0.8017721176147461 0.6180955171585083
H -1.189468264579773 -1.6885062456130981 -0.3365950286388397
H -0.0241205096244812 -1.9849342107772827 0.02239258587360382
H 1.7495962381362915 -2.3087856769561768 -1.540740728378296
H 1.09781813621521 -1.3810384273529053 -1.9873781204223633
H 0.35894060134887695 -2.9230453968048096 -0.5230824947357178
H 0.33858028054237366 1.7448208332061768 -0.5681747198104858
H 2.0339114665985107 2.9101614952087402 0.0602547749876976
H 3.1066672801971436 1.8242597579956055 0.7726725935935974
H 1.7442244291305542 2.5409224033355713 1.3773717880249023
C -2.9727962017059326 0.1985214650630951 0.031199179589748383
C -1.6860084533691406 0.2928774058818817 0.418384313583374
C 0.4582987427711487 -1.0889216661453247 0.21201010048389435
C 0.968045711517334 -1.8936899900436401 -0.9646469950675964
C 1.3076590299606323 -0.20741674304008484 0.09334582090377808
C 2.0070698261260986 2.0654726028442383 0.49224618077278137
N -0.839152455329895 -0.8733401894569397 0.09968794882297516
N 1.1431306600570679 1.205202579498291 0.062407031655311584
O -1.267669916152954 1.3256028890609741 1.0714317560195923
O 2.4593067169189453 -0.7349251508712769 0.56131511926651
22

H -3.6169021129608154 0.9992520213127136 -0.6356956958770752
H -3.835602283477783 0.33592382073402405 0.2866705358028412
H -3.360988140106201 -0.8190944194793701 0.5471310615539551
H -1.1906623840332031 -1.7250198125839233 -0.41410648822784424
H 0.049900904297828674 -2.0586979389190674 0.027254506945610046
H 1.8738633394241333 -2.0498955249786377 -1.65333890914917
H 1.1584457159042358 -1.0051711797714233 -2.1080243587493896
H 0.42051422595977783 -2.71101975440979 -0.9635133147239685
H 0.32156211137771606 1.7139887809753418 -0.3916604518890381
H 1.8861846923828125 2.9111921787261963 0.48137152194976807
H 3.055514097213745 1.8039493560791016 1.00161874294281
H 1.6759599447250366 2.3767220973968506 1.708771824836731
C -2.975048780441284 0.1471642255783081 -0.08925658464431763
C -1.6808937788009644 0.2252347767353058 0.2896224856376648
C 0.48130130767822266 -1.119728684425354 0.1096341460943222
C 1.033278226852417 -1.6819405555725098 -1.1561617851257324
C 1.3018280267715454 -0.24458441138267517 0.19167770445346832
C 1.947073221206665 2.0038304328918457 0.7889407277107239
N -0.8271660804748535 -0.9117597937583923 0.006103202700614929
N 1.1041138172149658 1.158300757408142 0.22857517004013062
O -1.2527636289596558 1.25235915184021 0.8906333446502686
O 2.4265739917755127 -0.8070381879806519 0.6781187653541565
22

H -3.5764451026916504 1.0234911441802979 -0.6212832927703857
H -3.8752784729003906 0.09256823360919952 0.1263459324836731
H -3.303481101989746 -0.8239686489105225 0.4975406527519226
H -1.2450181245803833 -1.75785231590271 -0.45934292674064636
H 0.0932200700044632 -2.1108086109161377 0.005669057369232178
H 1.9660625457763672 -1.7222057580947876 -1.7776334285736084
H 1.1585242748260498 -0.5864070653915405 -2.2004590034484863
H 0.4619181752204895 -2.4406301975250244 -1.4433798789978027
H 0.28638511896133423 1.6623613834381104 -0.18982812762260437
H 1.7850444316864014 2.8587000370025635 0.8921675682067871
H 2.998216152191162 1.7554171085357666 1.195386528968811
H 1.6491062641143799 2.185519218444824 2.0305285453796387
C -2.963905096054077 0.08425802737474442 -0.17798489332199097
C -1.66199791431427 0.1390637755393982 0.16708502173423767
C 0.5017873644828796 -1.1455726623535156 -0.010905727744102478
C 1.0723094940185547 -1.4282252788543701 -1.3565255403518677
C 1.2900909185409546 -0.2853339612483978 0.28587982058525085
C 1.9027817249298096 1.9191480875015259 1.0718584060668945
N -0.829626202583313 -0.9533503651618958 -0.07991892099380493
N 1.0689655542373657 1.0904300212860107 0.3930785059928894
O -1.1863521337509155 1.156930923461914 0.6846817135810852
O 2.3966901302337646 -0.8751884698867798 0.7786173820495605
22

H -3.5539560317993164 1.0654692649841309 -0.5891242027282715
H -3.8636045455932617 -0.12770061194896698 -0.027230173349380493
H -3.2894837856292725 -0.8166145086288452 0.46143752336502075
H -1.2571905851364136 -1.8167283535003662 -0.4541461765766144
H 0.19353415071964264 -2.1653358936309814 -0.05231530964374542
H 2.0341477394104004 -1.431841254234314 -1.8675280809402466
H 1.1355547904968262 -0.243419349193573 -2.2604527473449707
H 0.49102717638015747 -2.181455135345459 -1.8678820133209229
H 0.29631951451301575 1.5951526165008545 -0.03715622425079346
H 1.7007808685302734 2.774679660797119 1.2503457069396973
H 2.940347909927368 1.7286632061004639 1.347619652748108
H 1.6195931434631348 2.028308391571045 2.279515027999878
C -2.9657437801361084 0.032073505222797394 -0.23937824368476868
C -1.6586310863494873 0.06911975145339966 0.06723195314407349
C 0.527068555355072 -1.1728136539459229 -0.11819532513618469
C 1.0919314622879028 -1.2079646587371826 -1.5260778665542603
C 1.2838773727416992 -0.31796130537986755 0.38016510009765625
C 1.8595949411392212 1.8446508646011353 1.3023440837860107
N -0.8210270404815674 -0.9994425177574158 -0.13496753573417664
N 1.0500175952911377 1.0234017372131348 0.5253995656967163
O -1.1706289052963257 1.097049355506897 0.483410507440567
O 2.367011070251465 -0.9013053178787231 0.9083129167556763
22

H -3.561922073364258 1.0743939876556396 -0.5754522681236267
H -3.8548834323883057 -0.31739580631256104 -0.20948541164398193
H -3.308533191680908 -0.7947263717651367 0.4195120334625244
H -1.2432749271392822 -1.887328863143921 -0.39931392669677734
H 0.3231583833694458 -2.1833651065826416 -0.13770145177841187
H 2.06046462059021 -1.268886923789978 -1.9014769792556763
H 1.0648314952850342 -0.032282087951898575 -2.2274584770202637
H 0.4704863429069519 -1.8868099451065063 -2.1249077320098877
H 0.3771129250526428 1.5338521003723145 0.10872846841812134
H 1.6639453172683716 2.65889048576355 1.5230859518051147
H 2.9275763034820557 1.693350076675415 1.4831700325012207
H 1.6501517295837402 1.9611133337020874 2.4257826805114746
C -2.9990947246551514 -0.006516776978969574 -0.29811403155326843
C -1.6848297119140625 0.040940433740615845 -0.027822420001029968
C 0.5302931666374207 -1.1739908456802368 -0.20877110958099365
C 1.066616177558899 -1.043901801109314 -1.6318681240081787
C 1.2919330596923828 -0.35376402735710144 0.4377703368663788
C 1.8682342767715454 1.789127230644226 1.468925952911377
N -0.8226802349090576 -1.0319322347640991 -0.1652725636959076
N 1.0729683637619019 0.969720721244812 0.6303595304489136
O -1.2045950889587402 1.1159237623214722 0.2786174416542053
O 2.3427250385284424 -0.9539633393287659 0.9880796074867249
22

H -3.5749003887176514 1.0570884943008423 -0.584061861038208
H -3.8205411434173584 -0.49786561727523804 -0.40066102147102356
H -3.3409063816070557 -0.7495712041854858 0.37652134895324707
H -1.2398935556411743 -1.915421962738037 -0.32397979497909546
H 0.4385984539985657 -2.181079149246216 -0.24277395009994507
H 2.0563769340515137 -1.1196562051773071 -1.9289706945419312
H 0.9424270987510681 0.14446675777435303 -2.1710891723632812
H 0.42410963773727417 -1.5893630981445312 -2.35489559173584
H 0.48889538645744324 1.4950823783874512 0.26335638761520386
H 1.649539828300476 2.533276319503784 1.7890517711639404
H 2.930553436279297 1.622366189956665 1.6136868000030518
H 1.7050260305404663 1.8970446586608887 2.5737390518188477
C -3.0326123237609863 -0.0426383838057518 -0.36418792605400085
C -1.7140843868255615 0.025699973106384277 -0.12623731791973114
C 0.5223561525344849 -1.1530224084854126 -0.2929835915565491
C 1.0119810104370117 -0.8905329704284668 -1.7239497900009155
C 1.308720350265503 -0.398477703332901 0.4881819188594818
C 1.9015257358551025 1.7228866815567017 1.6311116218566895
N -0.8334579467773438 -1.0384657382965088 -0.18666508793830872
N 1.1152546405792236 0.9234867691993713 0.7380948066711426
O -1.239349603652954 1.1383965015411377 0.0662570670247078
O 2.329359292984009 -1.056502342224121 1.058424472808838
22

H -3.5887742042541504 1.0433961153030396 -0.6066832542419434
H -3.7913126945495605 -0.6541579365730286 -0.5747907161712646
H -3.3661727905273438 -0.6912010908126831 0.32819539308547974
H -1.2455142736434937 -1.922236442565918 -0.2602195739746094
H 0.5347160696983337 -2.1826517581939697 -0.34526267647743225
H 2.0544612407684326 -0.9792877435684204 -1.946280837059021
H 0.8336952328681946 0.32746535539627075 -2.0967257022857666
H 0.3693345785140991 -1.2849897146224976 -2.579205274581909
H 0.6128535866737366 1.4602184295654297 0.40911030769348145
H 1.6835787296295166 2.3876538276672363 2.040604829788208
H 2.9252965450286865 1.5154730081558228 1.7492371797561646
H 1.77271568775177 1.8195724487304688 2.712184429168701
C -3.067229747772217 -0.059865303337574005 -0.4329846203327179
C -1.7507117986679077 0.019645869731903076 -0.22367411851882935
C 0.503710925579071 -1.1301660537719727 -0.3681029677391052
C 0.9594409465789795 -0.7350118160247803 -1.8074945211410522
C 1.315737009048462 -0.4458863139152527 0.5369573831558228
C 1.9484891891479492 1.6387287378311157 1.7895357608795166
N -0.8541766405105591 -1.0341764688491821 -0.2095329612493515
N 1.1619014739990234 0.8738725781440735 0.842644989490509
O -1.28572416305542 1.158528208732605 -0.13979586958885193
O 2.285609006881714 -1.1759815216064453 1.1230592727661133
22

H -3.6557302474975586 0.8915596008300781 -0.30019187927246094
H -3.5183305740356445 -0.5874404907226562 -1.2922916412353516
H -3.4184303283691406 -0.7014408111572266 0.4798088073730469
H -1.3826303482055664 -1.8510408401489258 -0.25489044189453125
H 0.7968692779541016 -2.137240409851074 -0.5230913162231445
H 2.1792688369750977 -0.6108417510986328 -1.9117908477783203
H 0.8664693832397461 0.5975589752197266 -1.935791015625
H 0.6330690383911133 -0.9900407791137695 -2.7145910263061523
H 0.42276954650878906 1.2902584075927734 0.4300079345703125
H 1.3800697326660156 1.0853595733642578 3.061908721923828
H 2.868668556213379 1.188558578491211 2.098308563232422
H 1.664769172668457 2.5142593383789062 2.0215091705322266
C -3.1538305282592773 -0.07774162292480469 -0.38749122619628906
C -1.6562309265136719 0.15325927734375 -0.4684915542602539
C 0.5706691741943359 -1.0626411437988281 -0.5416908264160156
C 1.0899696350097656 -0.4731407165527344 -1.8577909469604492
C 1.3374691009521484 -0.5163402557373047 0.6901092529296875
C 1.7958688735961914 1.4279594421386719 2.100109100341797
N -0.8948307037353516 -0.9744405746459961 -0.4138908386230469
N 1.1403694152832031 0.7922592163085938 0.9730091094970703
O -1.1711311340332031 1.294158935546875 -0.5788908004760742
O 2.1048688888549805 -1.2528409957885742 1.3261089324951172
