22

H -3.5081586837768555 1.5184783935546875 0.7520160675048828
H -3.4610586166381836 -0.05352020263671875 -0.10418319702148438
H -3.423858642578125 -0.008821487426757812 1.6730155944824219
H -1.433359146118164 -1.4224205017089844 0.43071651458740234
H 0.8661413192749023 0.07427978515625 1.4318161010742188
H 2.044841766357422 -2.133420944213867 1.2518157958984375
H 0.6639413833618164 -2.825221061706543 0.39711666107177734
H 0.4908409118652344 -2.3113203048706055 2.112516403198242
H 0.7467412948608398 1.622579574584961 -0.27878379821777344
H 2.8227405548095703 1.060079574584961 -2.325984001159668
H 1.2033414840698242 1.3294792175292969 -3.003983497619629
H 1.9884414672851562 2.617380142211914 -2.0364837646484375
C -3.0836591720581055 0.5092792510986328 0.7631168365478516
C -1.571059226989746 0.6091785430908203 0.7487163543701172
C 0.5529413223266602 -0.679020881652832 0.690216064453125
C 0.9540414810180664 -2.0728206634521484 1.1447162628173828
C 1.2219409942626953 -0.31992053985595703 -0.6627836227416992
C 1.8495407104492188 1.5334796905517578 -2.1345834732055664
N -0.9050588607788086 -0.5701208114624023 0.5993165969848633
N 1.2867412567138672 1.0138797760009766 -0.9018831253051758
O -0.970158576965332 1.6888790130615234 0.8879165649414062
O 1.6641407012939453 -1.1803207397460938 -1.4343833923339844
22

H -3.4800093173980713 1.6501436233520508 0.4339345097541809
H -3.4051284790039062 -0.010193515568971634 -0.48502999544143677
H -3.5582098960876465 -0.027682483196258545 1.419069528579712
H -1.423096776008606 -1.5975805521011353 0.13725119829177856
H 0.6982736587524414 -0.23678383231163025 1.5664422512054443
H 2.0493767261505127 -2.2668347358703613 1.2688370943069458
H 0.655495285987854 -3.038893699645996 0.16343748569488525
H 0.3449697196483612 -2.6423468589782715 1.9245812892913818
H 0.7530382871627808 1.8156263828277588 0.047012049704790115
H 2.863492250442505 1.3513574600219727 -2.0351128578186035
H 1.4983845949172974 1.5235453844070435 -2.83732271194458
H 2.2371668815612793 2.7690014839172363 -1.6618586778640747
C -3.0958075523376465 0.6002843379974365 0.5092120170593262
C -1.6573395729064941 0.5171799659729004 0.651825487613678
C 0.44616225361824036 -0.7888124585151672 0.6783034801483154
C 0.9407097697257996 -2.231809616088867 1.065146565437317
C 1.1222023963928223 -0.23586872220039368 -0.4715385437011719
C 1.960395097732544 1.734113335609436 -1.8264797925949097
N -0.9424545168876648 -0.7061524987220764 0.46020597219467163
N 1.2568718194961548 1.1466212272644043 -0.6810520887374878
O -1.0590527057647705 1.6878548860549927 0.9012994766235352
O 1.795359492301941 -1.0601158142089844 -1.2615278959274292
22

H -3.445646286010742 1.6895849704742432 0.41894274950027466
H -3.3983659744262695 0.0458880178630352 -0.6419139504432678
H -3.510928153991699 -0.04071637988090515 1.3282594680786133
H -1.486004114151001 -1.5888612270355225 -0.05416899919509888
H 0.6516985297203064 -0.3478185534477234 1.581162452697754
H 2.022819995880127 -2.3086295127868652 1.146690845489502
H 0.46738332509994507 -3.001819133758545 -0.008129775524139404
H 0.233254075050354 -2.8472654819488525 1.779228925704956
H 0.8281083106994629 1.7984261512756348 0.18129843473434448
H 2.9692747592926025 1.4162805080413818 -1.8022996187210083
H 1.5434045791625977 1.6464390754699707 -2.7918834686279297
H 2.270885705947876 2.775987148284912 -1.4086354970932007
C -3.0652976036071777 0.6149759292602539 0.4283289611339569
C -1.644364595413208 0.5364313721656799 0.5712041854858398
C 0.4025712013244629 -0.8306742906570435 0.6634658575057983
C 0.8500570058822632 -2.2855608463287354 0.9412244558334351
C 1.147526741027832 -0.23984408378601074 -0.34343189001083374
C 2.0143651962280273 1.7834726572036743 -1.64984929561615
N -0.9690837264060974 -0.7076053023338318 0.365964412689209
N 1.3076015710830688 1.1460599899291992 -0.5268656611442566
O -1.0357019901275635 1.729453682899475 0.824974775314331
O 1.8521264791488647 -1.0378830432891846 -1.0274038314819336
22

H -3.365151882171631 1.692830204963684 0.3973243832588196
H -3.393174886703491 0.09517724812030792 -0.7609015107154846
H -3.4508614540100098 -0.05516812205314636 1.2446799278259277
H -1.5875146389007568 -1.5603851079940796 -0.3004359304904938
H 0.603280782699585 -0.4944837689399719 1.5937527418136597
H 1.9530029296875 -2.3861560821533203 1.0329079627990723
H 0.2844659388065338 -2.9964118003845215 -0.2821667790412903
H 0.06605156511068344 -3.0444438457489014 1.5216401815414429
H 0.8885140419006348 1.7742559909820557 0.28219830989837646
H 3.1105763912200928 1.4519691467285156 -1.5162014961242676
H 1.5748711824417114 1.855473279953003 -2.7411909103393555
H 2.2999427318573 2.7901499271392822 -1.0930510759353638
C -3.017124652862549 0.6194565296173096 0.3600659668445587
C -1.624916672706604 0.5460049510002136 0.5114532709121704
C 0.3560646176338196 -0.8764549493789673 0.6389260292053223
C 0.7410134077072144 -2.353785991668701 0.7553152441978455
C 1.1962515115737915 -0.2165360152721405 -0.1892324835062027
C 2.056093692779541 1.8365364074707031 -1.4419350624084473
N -1.0064877271652222 -0.7017385959625244 0.2563928961753845
N 1.359548807144165 1.1487089395523071 -0.3705534338951111
O -1.0018682479858398 1.755603313446045 0.8045241832733154
O 1.9617000818252563 -0.9374848008155823 -0.7081791162490845
22

H -3.295602798461914 1.6844687461853027 0.4146035313606262
H -3.3762903213500977 0.1630212813615799 -0.8782678246498108
H -3.4176087379455566 -0.11748984456062317 1.2563869953155518
H -1.7148551940917969 -1.4804264307022095 -0.48382851481437683
H 0.6038355827331543 -0.663237988948822 1.5651459693908691
H 1.8789931535720825 -2.423337936401367 0.8918887376785278
H 0.16088733077049255 -3.0012922286987305 -0.5510176420211792
H -0.06044582277536392 -3.1250832080841064 1.2065324783325195
H 0.9757158756256104 1.6962090730667114 0.37168243527412415
H 3.2453863620758057 1.5310190916061401 -1.2258344888687134
H 1.518742322921753 2.010737657546997 -2.724921703338623
H 2.244417667388916 2.845303773880005 -0.8270670175552368
C -2.972869396209717 0.6165655255317688 0.33472970128059387
C -1.6039637327194214 0.5438010096549988 0.4856511354446411
C 0.3358706831932068 -0.919756293296814 0.5914608240127563
C 0.6594437956809998 -2.382138729095459 0.5533050894737244
C 1.2622466087341309 -0.21925592422485352 -0.0640384703874588
C 2.0630106925964355 1.8871991634368896 -1.2669992446899414
N -1.0503143072128296 -0.6776547431945801 0.1623254418373108
N 1.420149803161621 1.1231276988983154 -0.23660536110401154
O -0.9501073360443115 1.7306793928146362 0.8442394733428955
O 2.0744235515594482 -0.8754091858863831 -0.41710084676742554
22

H -3.341156244277954 1.681620717048645 0.289747953414917
H -3.3253040313720703 0.1049390584230423 -0.993840754032135
H -3.4024667739868164 -0.23373141884803772 1.1664435863494873
H -1.750129222869873 -1.435646414756775 -0.6323261857032776
H 0.479743093252182 -0.8273733258247375 1.508681297302246
H 1.858160138130188 -2.349480390548706 0.709152102470398
H 0.1483074277639389 -2.768169641494751 -0.7365326881408691
H -0.04224059730768204 -3.005958318710327 0.8267674446105957
H 0.9230579137802124 1.6302622556686401 0.4572695791721344
H 3.3659048080444336 1.5474623441696167 -0.8164072036743164
H 1.6048109531402588 2.0183932781219482 -2.630826473236084
H 2.2521259784698486 2.813441276550293 -0.4048498868942261
C -2.967864751815796 0.5638123750686646 0.22843769192695618
C -1.6458637714385986 0.5143733620643616 0.38641953468322754
C 0.29527151584625244 -0.9357834458351135 0.5377829074859619
C 0.6517512202262878 -2.2597403526306152 0.33804184198379517
C 1.30066978931427 -0.22831791639328003 0.09574069082736969
C 2.115365982055664 1.8672541379928589 -0.9922768473625183
N -1.0850610733032227 -0.670353353023529 0.060742706060409546
N 1.4302042722702026 1.0791873931884766 -0.05833141505718231
O -1.040607213973999 1.6868720054626465 0.7489261627197266
O 2.1798501014709473 -0.8440459966659546 -0.08189210295677185
22

H -3.40187406539917 1.6043168306350708 0.03718012571334839
H -3.1931848526000977 -0.15510718524456024 -1.169663429260254
H -3.4355082511901855 -0.5429015159606934 1.0436146259307861
H -1.6374094486236572 -1.4916802644729614 -0.7408627867698669
H 0.3567328453063965 -1.0081472396850586 1.3689393997192383
H 1.838484764099121 -2.152817726135254 0.42035865783691406
H 0.28078287839889526 -2.2286875247955322 -0.9061895608901978
H 0.06748908013105392 -2.7271969318389893 0.24072661995887756
H 0.6296939849853516 1.66020929813385 0.5948508977890015
H 3.456629514694214 1.5725246667861938 -0.25009095668792725
H 1.8201512098312378 2.036078453063965 -2.3096418380737305
H 2.3164782524108887 2.7526726722717285 0.2950010299682617
C -2.9732003211975098 0.37313711643218994 0.03173592686653137
C -1.723589301109314 0.3910180926322937 0.16941741108894348
C 0.26988697052001953 -0.9294748306274414 0.4448085129261017
C 0.7064886689186096 -1.9792205095291138 0.03870633244514465
C 1.2721543312072754 -0.20331817865371704 0.31182244420051575
C 2.1784496307373047 1.855543851852417 -0.5319966077804565
N -1.0636255741119385 -0.7317380309104919 -0.06986004114151001
N 1.3334397077560425 1.0879591703414917 0.2240353226661682
O -1.2644541263580322 1.560465931892395 0.426225870847702
O 2.1927530765533447 -0.7975805401802063 0.32511454820632935
22

H -3.4592678546905518 1.5148992538452148 -0.0485149621963501
H -3.1050186157226562 -0.34142881631851196 -1.2559986114501953
H -3.437363624572754 -0.7446973323822021 1.0743436813354492
H -1.5471731424331665 -1.500136375427246 -0.544759213924408
H 0.3974054157733917 -1.1799646615982056 1.1456443071365356
H 1.8722981214523315 -1.9205820560455322 -0.025226904079318047
H 0.46158313751220703 -1.7391847372055054 -1.2114485502243042
H 0.15980134904384613 -2.5397942066192627 -0.25814563035964966
H 0.3829776346683502 1.7112845182418823 0.5747048854827881
H 3.442690849304199 1.51876699924469 0.2415471374988556
H 1.9087222814559937 2.011037826538086 -1.8300994634628296
H 2.2632811069488525 2.715628147125244 0.8142459392547607
C -2.977694511413574 0.24886058270931244 -0.02576860785484314
C -1.7462897300720215 0.31840839982032776 0.07289406657218933
C 0.30060985684394836 -0.9368641376495361 0.319064736366272
C 0.7939498424530029 -1.75491201877594 -0.3215557336807251
C 1.225416898727417 -0.2233811318874359 0.38220807909965515
C 2.154468297958374 1.8328295946121216 -0.12463243305683136
N -1.0220335721969604 -0.7598181962966919 -0.0597967803478241
N 1.2060028314590454 1.0882530212402344 0.37018048763275146
O -1.3915883302688599 1.4921621084213257 0.19048932194709778
O 2.166088104248047 -0.8548519611358643 0.4994053840637207
22

H -3.491438865661621 1.4452239274978638 -0.06845194101333618
H -3.1531620025634766 -0.3961713910102844 -1.297098159790039
H -3.433228015899658 -0.7563628554344177 1.063891887664795
H -1.5391802787780762 -1.5713812112808228 -0.4433940649032593
H 0.4347097873687744 -1.3037166595458984 0.9634805917739868
H 1.96365487575531 -1.732362985610962 -0.2894322872161865
H 0.5340766310691833 -1.4479153156280518 -1.3251959085464478
H 0.2500215172767639 -2.443746566772461 -0.54605633020401
H 0.3684755563735962 1.7142071723937988 0.47122517228126526
H 3.327458381652832 1.4825726747512817 0.5826126337051392
H 1.9634827375411987 1.9874693155288696 -1.4822591543197632
H 2.187493085861206 2.633544445037842 1.0995601415634155
C -3.002041816711426 0.21441026031970978 -0.05866231024265289
C -1.7517014741897583 0.28844496607780457 0.016722828149795532
C 0.32359981536865234 -0.9521780610084534 0.2278638780117035
C 0.8582500219345093 -1.6142405271530151 -0.5100667476654053
C 1.1999043226242065 -0.24680227041244507 0.405748188495636
C 2.1266071796417236 1.7971447706222534 0.13973399996757507
N -1.0143494606018066 -0.8041957020759583 -0.06824159622192383
N 1.1729458570480347 1.0718286037445068 0.41970664262771606
O -1.397961139678955 1.4826489686965942 0.07191857695579529
O 2.1190574169158936 -0.8831126689910889 0.6057243943214417
22

H -3.5189998149871826 1.390757441520691 -0.06016051769256592
H -3.2127749919891357 -0.4208168387413025 -1.3256196975708008
H -3.433506488800049 -0.7501053810119629 1.040757417678833
H -1.5202885866165161 -1.6217694282531738 -0.3420010209083557
H 0.47532719373703003 -1.4538707733154297 0.7843760251998901
H 2.039663314819336 -1.5867154598236084 -0.560269296169281
H 0.5727587938308716 -1.1558867692947388 -1.4299379587173462
H 0.33210188150405884 -2.3551414012908936 -0.8527203798294067
H 0.3579505383968353 1.6996227502822876 0.3918622136116028
H 3.2269933223724365 1.400823712348938 0.8877371549606323
H 2.0457603931427 1.9785511493682861 -1.08879816532135
H 2.102299451828003 2.580904245376587 1.3148504495620728
C -3.0282368659973145 0.19514136016368866 -0.0781688392162323
C -1.7485159635543823 0.2674349844455719 -0.03601372241973877
C 0.3451399505138397 -0.9750444889068604 0.14174771308898926
C 0.9024623036384583 -1.4874026775360107 -0.6999855637550354
C 1.1720459461212158 -0.26809781789779663 0.43169206380844116
C 2.1089468002319336 1.7559823989868164 0.3921496570110321
N -1.0026384592056274 -0.8421065211296082 -0.07462058961391449
N 1.1403744220733643 1.0501848459243774 0.47048085927963257
O -1.3764451742172241 1.468690276145935 -0.046153873205184937
O 2.062532663345337 -0.8934094309806824 0.7224070429801941
22

H -3.5457522869110107 1.3404273986816406 -0.05469578504562378
H -3.2623090744018555 -0.43279391527175903 -1.3397407531738281
H -3.4221858978271484 -0.7450583577156067 0.9986457228660583
H -1.4764503240585327 -1.6621750593185425 -0.25473591685295105
H 0.5175154209136963 -1.6062418222427368 0.6217389106750488
H 2.0877230167388916 -1.4754738807678223 -0.7923539280891418
H 0.6082414388656616 -0.9108533263206482 -1.5633097887039185
H 0.3956139087677002 -2.228681802749634 -1.177040934562683
H 0.39029642939567566 1.6737475395202637 0.35196927189826965
H 3.0589568614959717 1.342547059059143 1.1923270225524902
H 2.112558126449585 1.9545705318450928 -0.7309138774871826
H 2.004236936569214 2.548457384109497 1.4806501865386963
C -3.0454213619232178 0.17818380892276764 -0.09699665009975433
C -1.7364485263824463 0.24538074433803558 -0.0808933675289154
C 0.3695625066757202 -1.0004117488861084 0.06435094028711319
C 0.9376819133758545 -1.373275876045227 -0.8880364298820496
C 1.1558408737182617 -0.2850063145160675 0.4706783890724182
C 2.07129168510437 1.7232943773269653 0.620412290096283
N -0.978213369846344 -0.8785980343818665 -0.08206693828105927
N 1.1225523948669434 1.0283348560333252 0.5302834510803223
O -1.3470572233200073 1.4483493566513062 -0.14230608940124512
O 2.0181384086608887 -0.8967910408973694 0.8598724007606506
22

H -3.5784411430358887 1.2939488887786865 -0.05883598327636719
H -3.3117663860321045 -0.4363242983818054 -1.3459148406982422
H -3.4057631492614746 -0.7376697063446045 0.9344980120658875
H -1.4188143014907837 -1.7028049230575562 -0.18941554427146912
H 0.5589326620101929 -1.7535099983215332 0.46930769085884094
H 2.12685227394104 -1.3712714910507202 -0.9955822229385376
H 0.6380670070648193 -0.688284695148468 -1.6998084783554077
H 0.4398844242095947 -2.0969231128692627 -1.4829738140106201
H 0.45178091526031494 1.6431553363800049 0.3284897208213806
H 2.854687213897705 1.3129626512527466 1.4832561016082764
H 2.1720781326293945 1.9110010862350464 -0.3898986577987671
H 1.9053223133087158 2.51533579826355 1.6248979568481445
C -3.0614254474639893 0.1636340469121933 -0.12019351124763489
C -1.7208575010299683 0.2225319892168045 -0.12443806231021881
C 0.39567506313323975 -1.0269564390182495 -0.007594473659992218
C 0.9670106172561646 -1.267217993736267 -1.0631941556930542
C 1.149359107017517 -0.29924485087394714 0.515864372253418
C 2.027127981185913 1.6941262483596802 0.8329303860664368
N -0.9470468163490295 -0.9160628914833069 -0.09517234563827515
N 1.116918683052063 1.0066874027252197 0.5934178233146667
O -1.315247654914856 1.4264286756515503 -0.2239202857017517
O 1.9863983392715454 -0.8964839577674866 1.0048060417175293
22

H -3.6213254928588867 1.2514454126358032 -0.09610474109649658
H -3.3585240840911865 -0.43822425603866577 -1.3630335330963135
H -3.399949550628662 -0.716178297996521 0.8356150984764099
H -1.373144507408142 -1.771077275276184 -0.14031624794006348
H 0.6094608306884766 -1.8727376461029053 0.3032463490962982
H 2.1652307510375977 -1.228816270828247 -1.127057671546936
H 0.6778399348258972 -0.4837912619113922 -1.786033034324646
H 0.4435907006263733 -1.9441092014312744 -1.7484619617462158
H 0.5213634967803955 1.5980706214904785 0.3037166893482208
H 2.6629855632781982 1.2755142450332642 1.737757921218872
H 2.2357871532440186 1.8639973402023315 -0.0012871921062469482
H 1.8094931840896606 2.4920427799224854 1.761732578277588
C -3.084306001663208 0.15604133903980255 -0.16885676980018616
C -1.7117170095443726 0.19731326401233673 -0.1844678819179535
C 0.42622971534729004 -1.0509872436523438 -0.07959821820259094
C 0.9943539500236511 -1.1561596393585205 -1.2016351222991943
C 1.1545026302337646 -0.32548388838768005 0.5543806552886963
C 1.988262414932251 1.6607489585876465 1.0474151372909546
N -0.9206358790397644 -0.9598799347877502 -0.11806787550449371
N 1.1214878559112549 0.9731065034866333 0.6533695459365845
O -1.2922531366348267 1.4060066938400269 -0.3247493803501129
O 1.9761041402816772 -0.9193010330200195 1.135072112083435
22

H -3.660322666168213 1.2241692543029785 -0.12081015110015869
H -3.395864248275757 -0.4626457095146179 -1.388474941253662
H -3.4164462089538574 -0.7170861959457397 0.7055763602256775
H -1.3440210819244385 -1.840752124786377 -0.16099321842193604
H 0.6676630973815918 -1.9918882846832275 0.10437294840812683
H 2.2479407787323 -1.069815993309021 -1.2914907932281494
H 0.735405683517456 -0.23032483458518982 -1.8518489599227905
H 0.5127878785133362 -1.7588646411895752 -1.9329715967178345
H 0.5637662410736084 1.6056389808654785 0.2860564589500427
H 2.3532443046569824 1.283753752708435 2.0424532890319824
H 2.3757641315460205 1.7186095714569092 0.5172640085220337
H 1.7063508033752441 2.467465877532959 1.8739020824432373
C -3.108747959136963 0.13042335212230682 -0.23288780450820923
C -1.7088013887405396 0.15354524552822113 -0.2626073360443115
C 0.4635423719882965 -1.072447657585144 -0.17083460092544556
C 1.0592327117919922 -1.0216217041015625 -1.3271368741989136
C 1.149281620979309 -0.3543996214866638 0.5743914842605591
C 1.9329026937484741 1.6206773519515991 1.3096134662628174
N -0.8999436497688293 -1.0040041208267212 -0.17974048852920532
N 1.101534128189087 0.9509745836257935 0.7202904224395752
O -1.2817984819412231 1.3501536846160889 -0.43942350149154663
O 1.960433840751648 -0.9607634544372559 1.2283644676208496
22

H -3.6932477951049805 1.196281909942627 -0.15771949291229248
H -3.4394025802612305 -0.4961673617362976 -1.4204492568969727
H -3.4250974655151367 -0.7300609350204468 0.5848295092582703
H -1.2867431640625 -1.921566128730774 -0.1557489037513733
H 0.7277364730834961 -2.0878241062164307 -0.08825041353702545
H 2.3131744861602783 -0.9214076399803162 -1.4537378549575806
H 0.7968323230743408 0.003569290041923523 -1.898384690284729
H 0.5823022723197937 -1.589619517326355 -2.1050760746002197
H 0.6381222009658813 1.6244360208511353 0.25596579909324646
H 1.9151948690414429 1.3278008699417114 2.399015426635742
H 2.5335330963134766 1.5221571922302246 1.0617039203643799
H 1.7043201923370361 2.524909019470215 1.9209485054016113
C -3.134977102279663 0.09158267080783844 -0.3046213686466217
C -1.7162379026412964 0.10631358623504639 -0.3459694981575012
C 0.5039510726928711 -1.0934033393859863 -0.26143211126327515
C 1.1201426982879639 -0.8962454199790955 -1.4509501457214355
C 1.1457552909851074 -0.3878636062145233 0.5864332914352417
C 1.8730539083480835 1.5967625379562378 1.5798670053482056
N -0.8692168593406677 -1.0518646240234375 -0.24013517796993256
N 1.0939191579818726 0.9344047904014587 0.7849152684211731
O -1.3038904666900635 1.3093193769454956 -0.5689194202423096
O 1.9303842782974243 -1.028607964515686 1.29325270652771
22

H -3.6987204551696777 1.2074668407440186 -0.2546825110912323
H -3.4711930751800537 -0.5458875298500061 -1.4927921295166016
H -3.4049973487854004 -0.68843674659729 0.4571908116340637
H -1.2637587785720825 -1.984963297843933 -0.11726105213165283
H 0.7455782890319824 -2.166844606399536 -0.3269113302230835
H 2.290813446044922 -0.7874266505241394 -1.6408363580703735
H 0.8242553472518921 0.2789064943790436 -1.897478461265564
H 0.6075176000595093 -1.3785340785980225 -2.315239191055298
H 0.736896276473999 1.621778130531311 0.2910045385360718
H 1.422149658203125 1.2837440967559814 2.81876802444458
H 2.791783332824707 1.3236358165740967 1.6992919445037842
H 1.7982171773910522 2.576568365097046 1.9353387355804443
C -3.143907070159912 0.07263900339603424 -0.4187503457069397
C -1.7250041961669922 0.07821805775165558 -0.4709426164627075
C 0.5178976058959961 -1.1088929176330566 -0.36572572588920593
C 1.1347756385803223 -0.7517256140708923 -1.5888614654541016
C 1.1492727994918823 -0.4535640478134155 0.6253289580345154
C 1.842250108718872 1.5459141731262207 1.8978018760681152
N -0.8606354594230652 -1.0850892066955566 -0.3114229142665863
N 1.1051664352416992 0.8912134170532227 0.9014883041381836
O -1.3145641088485718 1.2849429845809937 -0.7824898958206177
O 1.9287492036819458 -1.1654796600341797 1.3891578912734985
22

H -3.6557302474975586 0.8915596008300781 -0.30019187927246094
H -3.5183305740356445 -0.5874404907226562 -1.2922916412353516
H -3.4184303283691406 -0.7014408111572266 0.4798088073730469
H -1.3826303482055664 -1.8510408401489258 -0.25489044189453125
H 0.7968692779541016 -2.137240409851074 -0.5230913162231445
H 2.1792688369750977 -0.6108417510986328 -1.9117908477783203
H 0.8664693832397461 0.5975589752197266 -1.935791015625
H 0.6330690383911133 -0.9900407791137695 -2.7145910263061523
H 0.42276954650878906 1.2902584075927734 0.4300079345703125
H 1.3800697326660156 1.0853595733642578 3.061908721923828
H 2.868668556213379 1.188558578491211 2.098308563232422
H 1.664769172668457 2.5142593383789062 2.0215091705322266
C -3.1538305282592773 -0.07774162292480469 -0.38749122619628906
C -1.6562309265136719 0.15325927734375 -0.4684915542602539
C 0.5706691741943359 -1.0626411437988281 -0.5416908264160156
C 1.0899696350097656 -0.4731407165527344 -1.8577909469604492
C 1.3374691009521484 -0.5163402557373047 0.6901092529296875
C 1.7958688735961914 1.4279594421386719 2.100109100341797
N -0.8948307037353516 -0.9744405746459961 -0.4138908386230469
N 1.1403694152832031 0.7922592163085938 0.9730091094970703
O -1.1711311340332031 1.294158935546875 -0.5788908004760742
O 2.1048688888549805 -1.2528409957885742 1.3261089324951172
