6

H -0.8586006164550781 -0.9956016540527344 0.2671518325805664
H -0.8565006256103516 0.26979827880859375 -0.9979486465454102
H -0.8562002182006836 0.7329978942871094 0.730351448059082
C -0.4812002182006836 0.0018978118896484375 -0.000148773193359375
C 2.116499900817871 -0.0071010589599609375 -0.000148773193359375
N 0.935999870300293 -0.0020008087158203125 0.000751495361328125
6

H -0.9262382984161377 -0.9494346380233765 0.25710707902908325
H -0.8924901485443115 0.3234194815158844 -1.0063506364822388
H -0.8744078278541565 0.7973848581314087 0.7396330237388611
C -0.47507330775260925 0.00870773009955883 -0.0003626309335231781
C 2.1277365684509277 -0.19079512357711792 -0.07878878712654114
N 0.9471937417984009 -0.01361100748181343 0.08558818697929382
6

H -0.924827516078949 -0.968711793422699 0.2524496614933014
H -0.8830288052558899 0.31970852613449097 -1.0219199657440186
H -0.8827143907546997 0.8013818860054016 0.7465140223503113
C -0.4500735104084015 0.009270853362977505 0.009786846116185188
C 2.070129632949829 -0.23962974548339844 -0.16289767622947693
N 0.9767650365829468 0.049787577241659164 0.15869012475013733
6

H -0.9240442514419556 -0.9822630286216736 0.2499457746744156
H -0.8766822218894958 0.3199809193611145 -1.036756157875061
H -0.8792468905448914 0.8043973445892334 0.7546429634094238
C -0.4354240298271179 0.006417851895093918 0.011263346299529076
C 2.0255486965179443 -0.28147420287132263 -0.21898338198661804
N 0.9973078966140747 0.10556650161743164 0.2157454639673233
6

H -0.925274670124054 -0.9913254976272583 0.24869948625564575
H -0.8660554885864258 0.31752800941467285 -1.0493183135986328
H -0.8745561242103577 0.8094702959060669 0.7588737607002258
C -0.4285178780555725 0.004872351884841919 0.01103513315320015
C 1.9831557273864746 -0.3248676061630249 -0.267316997051239
N 1.0179263353347778 0.1598857343196869 0.2683959901332855
6

H -0.9302971363067627 -0.9995364546775818 0.24915190041065216
H -0.8560593724250793 0.3095878064632416 -1.0634233951568604
H -0.8682708144187927 0.8120899796485901 0.7623143792152405
C -0.42550718784332275 0.0054621025919914246 0.009363720193505287
C 1.9362518787384033 -0.3590625822544098 -0.310784250497818
N 1.0494219064712524 0.20370323956012726 0.3208561837673187
6

H -0.9315600991249084 -1.0064897537231445 0.24558018147945404
H -0.8462376594543457 0.3040366768836975 -1.077363133430481
H -0.8672155141830444 0.808497428894043 0.7659134268760681
C -0.42400220036506653 0.007573188282549381 0.006414346396923065
C 1.8842558860778809 -0.3845508098602295 -0.3487866520881653
N 1.0950182676315308 0.24519328773021698 0.37498739361763
6

H -0.9278432726860046 -1.0168592929840088 0.20764747262001038
H -0.8389136791229248 0.29936397075653076 -1.1003941297531128
H -0.8816609382629395 0.7838097214698792 0.7794678807258606
C -0.4043564200401306 -0.002613717457279563 -0.00881204754114151
C 1.745707392692566 -0.39507097005844116 -0.35085785388946533
N 1.2233402729034424 0.3080238699913025 0.4408693015575409
6

H -0.924673318862915 -1.0312596559524536 0.18523018062114716
H -0.8423115611076355 0.30644097924232483 -1.1148685216903687
H -0.8795503377914429 0.7575908303260803 0.7711721658706665
C -0.38393262028694153 -0.018002038821578026 -0.025180544704198837
C 1.611629605293274 -0.3856559097766876 -0.3448110818862915
N 1.3489235639572144 0.3395198583602905 0.49290573596954346
6

H -0.9283585548400879 -1.0444047451019287 0.16735850274562836
H -0.8388032913208008 0.3142537474632263 -1.1238150596618652
H -0.8792763352394104 0.7296347618103027 0.7597249746322632
C -0.3639615774154663 -0.028815513476729393 -0.041530828922986984
C 1.4747765064239502 -0.37289267778396606 -0.332867830991745
N 1.484993815422058 0.3523644804954529 0.536935567855835
6

H -0.943339467048645 -1.0587676763534546 0.14678412675857544
H -0.8260756134986877 0.32509759068489075 -1.1288708448410034
H -0.8918090462684631 0.7120811939239502 0.7516187429428101
C -0.3531171381473541 -0.03831487149000168 -0.054232265800237656
C 1.361274242401123 -0.32926109433174133 -0.29182058572769165
N 1.6123943328857422 0.3219760060310364 0.5607231259346008
6

H -0.9532020092010498 -1.0797635316848755 0.1246757060289383
H -0.8175544738769531 0.32908540964126587 -1.1346535682678223
H -0.8973184823989868 0.6965250372886658 0.7452621459960938
C -0.3543543815612793 -0.04662416875362396 -0.06768374145030975
C 1.2626339197158813 -0.28436222672462463 -0.2365092635154724
N 1.734847068786621 0.2926796078681946 0.5761350989341736
6

H -0.9474493265151978 -1.0998549461364746 0.10732720792293549
H -0.8176758885383606 0.32767122983932495 -1.1406868696212769
H -0.8949518799781799 0.6876296401023865 0.7396520972251892
C -0.37080836296081543 -0.04786794260144234 -0.08058677613735199
C 1.1877095699310303 -0.2514295279979706 -0.17320790886878967
N 1.8362592458724976 0.26081836223602295 0.5752817392349243
6

H -0.9397008419036865 -1.1029528379440308 0.08850911259651184
H -0.8156648278236389 0.3342999219894409 -1.140088438987732
H -0.8872871994972229 0.6862508058547974 0.730416476726532
C -0.3933756947517395 -0.04925340414047241 -0.08872859179973602
C 1.1264647245407104 -0.23436348140239716 -0.12717723846435547
N 1.9132972955703735 0.22785189747810364 0.5667642951011658
6

H -0.9337478280067444 -1.1033700704574585 0.07188697904348373
H -0.8139742016792297 0.3402904272079468 -1.1355478763580322
H -0.8854135870933533 0.6867926120758057 0.7245419025421143
C -0.42135491967201233 -0.04929070547223091 -0.0953802615404129
C 1.0733057260513306 -0.22139966487884521 -0.08503774553537369
N 1.9835951328277588 0.20162896811962128 0.5512187480926514
6

H -0.9294811487197876 -1.102267861366272 0.056520212441682816
H -0.8118579983711243 0.34674614667892456 -1.130113124847412
H -0.8847303986549377 0.6894366145133972 0.717584490776062
C -0.45050379633903503 -0.05118711292743683 -0.10113149881362915
C 1.022302269935608 -0.20973888039588928 -0.044114504009485245
N 2.0523595809936523 0.17714373767375946 0.5343506932258606
6

H -0.8686990737915039 -1.0358991622924805 0.2781515121459961
H -0.8686990737915039 0.2805004119873047 -1.0382490158081055
H -0.8686990737915039 0.7623004913330078 0.7599515914916992
C -0.4885988235473633 0.0024013519287109375 -0.00024890899658203125
C 0.9640007019042969 -0.002399444580078125 5.14984130859375e-05
N 2.1307010650634766 -0.0068988800048828125 0.0003509521484375
